GEOS-Chem speices
MO2
A3O2
AROMRO2
ATO2
BRO2
BZCO3
C4HVP1
C4HVP2
DIALO2
DIALCO2
ETOO
ETO2
HPALD1OO
HPALD2OO
ICHOO
ICNOO
IDHNBOO
IDHNDOO1
IDHNDOO2
IEPOXAOO
IEPOXBOO
IHOO1
IHOO4
IHPNBOO
IHPNDOO
IHPOO1
IHPOO2
IHPOO3
INO2B
INO2D
ISOPNOO1
ISOPNOO2
KO2
LIMO2
MACR1OO
MCROHOO
MVKOHOO
NRO2
OTHRO2
PIO2
PO2
PRN1
R4N1
R4O2
TRO2
XRO2
